#======================================================================

# CRYSTAL DATA

#----------------------------------------------------------------------

data_VESTA_phase_1


_pd_phase_name                         'MIL-53Al LT'
_cell_length_a                         20.82400
_cell_length_b                         6.87100
_cell_length_c                         6.60670
_cell_angle_alpha                      90
_cell_angle_beta                       113.94800
_cell_angle_gamma                      90
_symmetry_space_group_name_H-M         'C 2/c'
_symmetry_Int_Tables_number            15

loop_
_symmetry_equiv_pos_as_xyz
   'x, y, z'
   '-x, -y, -z'
   '-x, y, -z+1/2'
   'x, -y, z+1/2'
   'x+1/2, y+1/2, z'
   '-x+1/2, -y+1/2, -z'
   '-x+1/2, y+1/2, -z+1/2'
   'x+1/2, -y+1/2, z+1/2'

loop_
   _atom_site_label
   _atom_site_occupancy
   _atom_site_fract_x
   _atom_site_fract_y
   _atom_site_fract_z
   _atom_site_adp_type
   _atom_site_B_iso_or_equiv
   _atom_site_type_symbol
   Al1        1.0     0.500000      0.000000      0.000000     Biso  8.000000 Al
   O2         1.0     0.000000      0.612000      0.250000     Biso  6.000000 O
   H3         1.0     0.000000      0.751000      0.250000     Biso  6.000000 H
   O4         1.0     0.060000      0.702000     -0.322000     Biso  3.100000 O
   O5         1.0     0.082000      0.639000      0.029000     Biso  3.100000 O
   C6         1.0     0.180000      0.719000     -0.057000     Biso  3.200000 C
   C7         1.0     0.226000      0.701000      0.159000     Biso  3.200000 C
   C8         1.0     0.104000      0.685000     -0.120000     Biso  3.200000 C
   C9         1.0     0.297000      0.732000      0.216000     Biso  3.200000 C
   H10        1.0     0.207000      0.660000      0.292000     Biso  3.200000 H
   H11        1.0     0.336000      0.718000      0.398000     Biso  3.200000 H
